*HEADING
fixture solido_piccolo di NOVA, generata da genera.py (mm, N, MPa, t, s)
*NODE
1, 0.000000000e+00, 0.000000000e+00, 0.000000000e+00
2, 5.000000000e+01, 0.000000000e+00, 0.000000000e+00
3, 1.000000000e+02, 0.000000000e+00, 0.000000000e+00
4, 1.500000000e+02, 0.000000000e+00, 0.000000000e+00
5, 2.000000000e+02, 0.000000000e+00, 0.000000000e+00
6, 0.000000000e+00, 5.000000000e+01, 0.000000000e+00
7, 5.000000000e+01, 5.000000000e+01, 0.000000000e+00
8, 1.000000000e+02, 5.000000000e+01, 0.000000000e+00
9, 1.500000000e+02, 5.000000000e+01, 0.000000000e+00
10, 2.000000000e+02, 5.000000000e+01, 0.000000000e+00
11, 0.000000000e+00, 1.000000000e+02, 0.000000000e+00
12, 5.000000000e+01, 1.000000000e+02, 0.000000000e+00
13, 1.000000000e+02, 1.000000000e+02, 0.000000000e+00
14, 1.500000000e+02, 1.000000000e+02, 0.000000000e+00
15, 2.000000000e+02, 1.000000000e+02, 0.000000000e+00
16, 0.000000000e+00, 0.000000000e+00, 5.000000000e+01
17, 5.000000000e+01, 0.000000000e+00, 5.000000000e+01
18, 1.000000000e+02, 0.000000000e+00, 5.000000000e+01
19, 1.500000000e+02, 0.000000000e+00, 5.000000000e+01
20, 2.000000000e+02, 0.000000000e+00, 5.000000000e+01
** ... 295 like lines cut
*ELEMENT, TYPE=C3D4, ELSET=ALL_WALL
1, 1, 2, 7, 22
2, 1, 17, 2, 22
3, 1, 7, 6, 22
4, 1, 6, 21, 22
5, 1, 16, 17, 22
6, 1, 21, 16, 22
7, 2, 3, 8, 23
8, 2, 18, 3, 23
9, 2, 8, 7, 23
10, 2, 7, 22, 23
11, 2, 17, 18, 23
12, 2, 22, 17, 23
13, 3, 4, 9, 24
14, 3, 19, 4, 24
15, 3, 9, 8, 24
16, 3, 8, 23, 24
17, 3, 18, 19, 24
18, 3, 23, 18, 24
19, 4, 5, 10, 25
20, 4, 20, 5, 25
** ... 940 like lines cut
*NSET, NSET=BASE
1, 2, 3, 4, 5, 6, 7, 8
9, 10, 11, 12, 13, 14, 15
*NSET, NSET=TOP
301, 302, 303, 304, 305, 306, 307, 308
309, 310, 311, 312, 313, 314, 315
*SOLID SECTION, ELSET=ALL_WALL, MATERIAL=CALCESTRUZZO_C25_30
*MATERIAL, NAME=CALCESTRUZZO_C25_30
*ELASTIC
31500.0, 0.2
*DENSITY
2.5493e-09
*BOUNDARY
BASE, 1, 3
** NOME PASSO: GRAVITA
*STEP
*STATIC
*DLOAD, OP=NEW
ALL_WALL, GRAV, 9810.0, 0.0, 0.0, -1.0
*NODE PRINT, NSET=BASE
RF
*NODE FILE
U
*EL FILE
S, E
*END STEP
** NOME PASSO: SPINTA_ORIZZONTALE
*STEP
*STATIC
*DLOAD, OP=NEW
ALL_WALL, GRAV, 9810.0, 0.0, 0.0, -1.0
ALL_WALL, GRAV, 981.0, 0.0, 1.0, 0.0
*NODE PRINT, NSET=BASE
RF
*NODE FILE
U
*EL FILE
S, E
*END STEP
** NOME PASSO: CARICO_TOP
*STEP
*STATIC
*DLOAD, OP=NEW
ALL_WALL, GRAV, 9810.0, 0.0, 0.0, -1.0
*CLOAD, OP=NEW
301, 3, -8.000000000e+01
302, 3, -8.000000000e+01
303, 3, -8.000000000e+01
304, 3, -8.000000000e+01
305, 3, -8.000000000e+01
306, 3, -8.000000000e+01
307, 3, -8.000000000e+01
308, 3, -8.000000000e+01
309, 3, -8.000000000e+01
310, 3, -8.000000000e+01
311, 3, -8.000000000e+01
312, 3, -8.000000000e+01
313, 3, -8.000000000e+01
314, 3, -8.000000000e+01
315, 3, -8.000000000e+01
*NODE PRINT, NSET=BASE
RF
*NODE FILE
U
*EL FILE
S, E
*END STEP
** NOME PASSO: MODALE
*STEP
*FREQUENCY
10
*NODE FILE
U
*END STEP
